--*
--*
--*  MAP GENERATOR 	 THOMSON-CSF/SDC/BCM
--*
--*
--*        begin of file
--*
--*  POINT FILE, DATE OF CREATION AND DATE OF LAST RELEASE
--*
--*  POINT FILE : MSAW
--*  CREATION  Tue Jan 14 06:07:34 2025
--*  RELEASE   Tue Jan 14 06:07:34 2025
--*
--*
--*  PROJECT MSAW LIST OF INTERNAL POINTS 
--*
 11A        GEO      23 00 51.0  112 29  9.0
--
 11B        GEO      23 04 18.0  112 29  7.0
--
 11C        GEO      23 17 10.0  112 27 54.0
--
 11D        GEO      23 00 54.0  112 42 42.0
--
 12A        GEO      23 30 30.0  112 53 34.0
--
 12B        GEO      22 33  0.0  113 11 41.0
--
 12C        GEO      22 29 21.0  112 53 39.0
--
 12D        GEO      22 27 36.0  112 44 53.0
--
 12E        GEO      22 43 12.0  112 29 15.0
--
 12F        GEO      22 48  0.0  112 29 18.0
--
 14A        GEO      24 02 54.0  113 33  5.0
--
 14B        GEO      24 01 14.0  113 35 50.0
--
 14C        GEO      23 57  4.0  113 34 55.0
--
 14D        GEO      24 00 30.0  113 29 16.0
--
 15A        GEO      23 44 53.0  113 49 14.0
--
 15B        GEO      23 34 53.0  113 52 52.0
--
 15C        GEO      23 35 35.0  113 48 14.0
--
 15D        GEO      23 41 45.0  113 45 59.0
--
 18A        GEO      23 50 45.0  112 36  7.0
--
 18C        GEO      24 00 14.0  112 43 55.0
--
 19A        GEO      22 32 36.0  111 59 59.0
--
 19B        GEO      23 02 56.0  111 59 52.0
--
 19C        GEO      23 46 15.0  111 55 36.0
--
 19D        GEO      22 20 56.0  112 11 44.0
--
 1A         GEO      23 40 12.0  113 14 36.0
--
 1B         GEO      23 48  7.0  113 15 28.0
--
 1C         GEO      23 48 50.0  113 21 44.0
--
 1D         GEO      23 50 12.0  113 25 34.0
--
 1E         GEO      23 43 15.0  113 31 40.0
--
 1G         GEO      23 38 39.0  113 31 40.0
--
 1H         GEO      23 35 24.0  113 35 18.0
--
 1J         GEO      23 29 12.0  113 29 25.0
--
 1K         GEO      23 24 52.0  113 25 24.0
--
 1L         GEO      23 27 40.0  113 13 43.0
--
 1M         GEO      23 33  8.0  113 15 40.0
--
 20A        GEO      24 51 48.0  112 49 31.0
--
 21A        GEO      23 01 42.0  113 47 34.0
--
 21B        GEO      22 55 48.0  113 39  0.0
--
 21C        GEO      22 53 13.0  113 38 22.0
--
 22A        GEO      22 54 14.0  114 03  4.0
--
 22B        GEO      22 53 59.0  114 03  2.0
--
 22C        GEO      22 53 48.0  113 57  6.0
--
 22D        GEO      22 53 17.0  113 40 41.0
--
 23A        GEO      22 56 34.0  114 11 48.0
--
 23B        GEO      22 54 21.0  114 10 43.0
--
 2A         GEO      24 20 31.0  113 29 13.0
--
 2B         GEO      24 19  7.0  113 42 38.0
--
 2C         GEO      24 19  0.0  113 43 44.0
--
 2D         GEO      24 15 12.0  113 39 18.0
--
 2E         GEO      24 15 59.0  113 31 48.0
--
 3A         GEO      24 47 25.0  113 32 33.0
--
 3B         GEO      24 42 16.0  114 20 46.0
--
 3C         GEO      24 16  8.0  114 40 14.0
--
 3D         GEO      24 10 53.0  114 41 36.0
--
 3E         GEO      23 46 44.0  114 17 37.0
--
 3F         GEO      23 49 19.0  114 06 42.0
--
 3G         GEO      24 05  6.0  114 02 32.0
--
 3H         GEO      24 17  2.0  114 02 12.0
--
 4A         GEO      23 37 38.0  114 50 11.0
--
 4B         GEO      22 55  3.0  114 34 50.0
--
 4C         GEO      22 54 30.0  114 13 42.0
--
 4D         GEO      23 02 12.0  114 06 36.0
--
 4E         GEO      23 07 36.0  114 08 30.0
--
 4F         GEO      23 23  5.0  114 14  2.0
--
 4G         GEO      23 24 27.0  113 56 59.0
--
 4H         GEO      23 17 16.0  113 52 27.0
--
 4J         GEO      23 37 56.0  113 37 48.0
--
 4K         GEO      23 48 17.0  113 43 57.0
--
 4L         GEO      23 54 46.0  113 38 18.0
--
 4M         GEO      23 47 50.0  112 51 11.0
--
 4N         GEO      23 30 59.0  112 39  8.0
--
 4P         GEO      23 38 18.0  112 25 54.0
--
 4Q         GEO      23 54 29.0  112 39 11.0
--
 4R         GEO      24 09 11.0  112 51 19.0
--
 4S         GEO      24 23 13.0  113 02 57.0
--
 4T         GEO      24 20 56.0  113 25 13.0
--
 5A         GEO      23 01 51.0  113 53  1.0
--
 5B         GEO      23 05 36.0  113 51  6.0
--
 5C         GEO      23 08 31.0  113 58 38.0
--
 7A         GEO      23 22 58.0  113 24 53.0
--
 7B         GEO      23 13 25.0  113 14 41.0
--
 7C         GEO      23 10 10.0  113 13 48.0
--
 7D         GEO      23 05 45.0  113 15 22.0
--
 7E         GEO      23 02 49.0  113 16 24.0
--
 7F         GEO      23 02 21.0  113 18 40.0
--
 7H         GEO      22 59 47.0  113 17 52.0
--
 7J         GEO      22 56 49.0  113 19 11.0
--
 7K         GEO      22 52 54.0  113 29  0.0
--
 7L         GEO      22 37 30.0  113 19 42.0
--
 7M         GEO      22 38 22.0  113 09  5.0
--
 7N         GEO      22 51 56.0  112 56 45.0
--
 7P         GEO      22 53 55.0  112 54 56.0
--
 7Q         GEO      22 56 25.0  112 54  8.0
--
 7R         GEO      23 12 55.0  112 48 51.0
--
 7S         GEO      23 20 30.0  112 50 53.0
--
 7T         GEO      23 17 52.0  113 02 22.0
--
 7U         GEO      23 21  6.0  113 10 18.0
--
 8B         GEO      23 10  8.0  113 21 25.0
--
 8C         GEO      23 06 56.0  113 19  7.0
--
 9A         GEO      23 02 14.0  113 19 15.0
--
 9B         GEO      22 59 37.0  113 18 33.0
--
 9C         GEO      23 01 18.0  113 33 24.0
--
 AR0403     GEO      23 41 28.0  113 30 39.0
--
 AR0404     GEO      23 42 26.0  113 31  0.0
--
 AR0405     GEO      23 39 28.0  113 31  0.0
--
 AR0406     GEO      23 40 26.0  113 30 39.0
--
 AR201      GEO      22 38 53.0  113 05 17.0
--
 AR202      GEO      22 40  3.0  113 01 35.0
--
 AR203      GEO      22 41 43.0  112 58 10.0
--
 AR204      GEO      22 43 52.0  112 55  4.0
--
 AR205      GEO      22 46 27.0  112 52 20.0
--
 AR206      GEO      22 49 22.0  112 50  6.0
--
 AR207      GEO      22 52 37.0  112 48 21.0
--
 AR208      GEO      22 56  2.0  112 47 11.0
--
 AR209      GEO      22 59 34.0  112 46 35.0
--
 AR210      GEO      23 03 11.0  112 46 36.0
--
 AR301      GEO      23 17 12.0  112 30 53.0
--
 AR302      GEO      23 16 33.0  112 33 48.0
--
 AR303      GEO      23 15 21.0  112 36 31.0
--
 AR304      GEO      23 13 39.0  112 38 53.0
--
 AR305      GEO      23 11 32.0  112 40 48.0
--
 AR306      GEO      23 09  5.0  112 42 11.0
--
 AR307      GEO      23 06 24.0  112 43  0.0
--
 AR308      GEO      23 03 38.0  112 43 10.0
--
 TEXT1      GEO      23 37 42.0  113 22 16.0
--
 TEXT101    GEO      22 59 27.0  112 48 14.0
--
 TEXT102    GEO      22 45 18.0  112 55 17.0
--
 TEXT11     GEO      23 08 40.0  112 32 58.0
--
 TEXT121    GEO      23 43  4.0  113 00 19.0
--
 TEXT122    GEO      23 33 35.0  112 45 33.0
--
 TEXT123    GEO      23 24 23.0  112 34 43.0
--
 TEXT124    GEO      22 53 42.0  112 31  4.0
--
 TEXT13     GEO      23 28 10.0  113 01 38.0
--
 TEXT14     GEO      23 58 56.0  113 29 15.0
--
 TEXT15     GEO      23 39 38.0  113 48  3.0
--
 TEXT16     GEO      23 01  8.0  113 17 59.0
--
 TEXT17     GEO      22 55 54.0  112 56 49.0
--
 TEXT18     GEO      23 53 58.0  112 40 30.0
--
 TEXT191    GEO      23 32 38.0  112 07 23.0
--
 TEXT192    GEO      23 10 21.0  112 08 16.0
--
 TEXT193    GEO      22 43  7.0  112 09  1.0
--
 TEXT2      GEO      24 18  4.0  113 34 40.0
--
 TEXT201    GEO      24 39  7.0  113 04 36.0
--
 TEXT202    GEO      24 25 39.0  112 36 17.0
--
 TEXT203    GEO      24 02  9.0  112 18 43.0
--
 TEXT21     GEO      22 57 42.0  113 32 57.0
--
 TEXT22     GEO      22 57 58.0  113 49 45.0
--
 TEXT23     GEO      22 57 48.0  114 05 28.0
--
 TEXT24     GEO      22 55 11.0  114 11  2.0
--
 TEXT25     GEO      22 54 11.0  113 38 44.0
--
 TEXT3      GEO      24 33 30.0  113 50 10.0
--
 TEXT31     GEO      24 15 16.0  114 14 41.0
--
 TEXT41     GEO      23 42  1.0  112 34 43.0
--
 TEXT42     GEO      24 01 51.0  112 59 58.0
--
 TEXT43     GEO      24 13 48.0  113 14 44.0
--
 TEXT44     GEO      24 08 54.0  113 47 20.0
--
 TEXT45     GEO      23 50 37.0  114 28 38.0
--
 TEXT46     GEO      23 36 15.0  114 10 42.0
--
 TEXT47     GEO      23 12 37.0  114 21 24.0
--
 TEXT51     GEO      23 47 47.0  113 33 58.0
--
 TEXT52     GEO      23 25 35.0  113 38  5.0
--
 TEXT53     GEO      23 06 26.0  113 54 56.0
--
 TEXT6      GEO      23 17 59.0  114 01 32.0
--
 TEXT71     GEO      23 06 20.0  113 01 31.0
--
 TEXT72     GEO      22 54 59.0  113 09 45.0
--
 TEXT73     GEO      22 45 51.0  113 11 21.0
--
 TEXT8      GEO      23 13 57.0  113 16 54.0
--
 TEXT91     GEO      23 17 11.0  113 28 48.0
--
 TEXT92     GEO      23 07 27.0  113 30 23.0
--
--*
--*        end of file
--*
--*
