--*
--*
--*  MAP GENERATOR 	 THOMSON-CSF/SDC/BCM
--*
--*
--*        begin of file
--*
--*  POINT FILE, DATE OF CREATION AND DATE OF LAST RELEASE
--*
--*  POINT FILE : POINTS
--*  CREATION  Tue Jan 14 06:07:28 2025
--*  RELEASE   Tue Jan 14 06:07:28 2025
--*
--*
--*  PROJECT POINTS LIST OF INTERNAL POINTS 
--*
 10A        GEO      23 23  5.0  114 14  2.0
--
 12A        GEO      23 39 13.0  113 48 53.0
--
 13A        GEO      23 57 44.0  113 31 20.0
--
 1A         GEO      23 24 52.0  113 25 24.0
--
 1B         GEO      23 27 55.0  113 12  4.0
--
 1C         GEO      23 21 17.0  113 10 45.0
--
 1D         GEO      23 19 44.0  113 06 56.0
--
 1DST       GEO      23 06 56.0  113 19  7.0
--
 1E         GEO      23 03 17.0  113 02 30.0
--
 1F         GEO      22 59 37.0  113 18 33.0
--
 1G         GEO      23 02 14.0  113 19 15.0
--
 1GG        GEO      23 09 54.0  113 21 21.0
--
 1H         GEO      23 02 53.0  113 16 23.0
--
 1I         GEO      23 11  1.0  113 13 30.0
--
 1J         GEO      23 12 46.0  113 13 59.0
--
 1K         GEO      23 22 58.0  113 24 53.0
--
 1KK        GEO      23 05 45.0  113 15 22.0
--
 1L         GEO      22 59 47.0  113 17 52.0
--
 1M         GEO      23 02 21.0  113 18 40.0
--
 1MM        GEO      23 00 15.0  113 21 20.0
--
 3A         GEO      23 32 23.0  113 15  5.0
--
 3B         GEO      23 34  5.0  113 15 20.0
--
 3C         GEO      23 48  7.0  113 15 28.0
--
 3D         GEO      23 47 12.0  113 21 22.0
--
 3E         GEO      23 48 22.0  113 25 38.0
--
 3F         GEO      23 29 12.0  113 29 12.0
--
 3G         GEO      23 43 24.0  113 31 30.0
--
 3GG        GEO      23 40 57.0  113 34  9.0
--
 3H         GEO      23 38 30.0  113 31 30.0
--
 4A         GEO      22 38 26.0  113 08  3.0
--
 4B         GEO      23 07 38.0  112 47 30.0
--
 4C         GEO      23 30 30.0  112 53 34.0
--
 5A         GEO      23 30 59.0  112 39  8.0
--
 6A         GEO      23 51  5.0  113 37 39.0
--
 6B         GEO      23 45 46.0  113 40 46.0
--
 6C         GEO      23 39 45.0  113 36 30.0
--
 6D         GEO      23 25 15.0  113 46 48.0
--
 6E         GEO      23 08 31.0  113 58 38.0
--
 6F         GEO      23 48 50.0  113 21 44.0
--
 6G         GEO      23 50 12.0  113 25 34.0
--
 6J         GEO      23 50 45.0  113 27  6.0
--
 6K         GEO      23 51 49.0  113 29 11.0
--
 6L         GEO      23 51 12.0  113 31 17.0
--
 7A         GEO      23 17 10.0  112 27 54.0
--
 7B         GEO      23 00 54.0  112 42 42.0
--
 7C         GEO      23 00 51.0  112 29  9.0
--
 BRG01      GEO      23 40 21.0  112 51  5.0
--
 BRG02      GEO      23 19 37.0  112 57 55.0
--
 BRG03      GEO      23 25 30.0  114 02  8.0
--
 BRG04      GEO      22 52 33.0  113 14 30.0
--
 BRG05      GEO      23 40 52.0  112 43  6.0
--
 BRG06      GEO      23 17 31.0  112 50 46.0
--
 BRG07      GEO      24 10 26.0  113 35 32.0
--
 BRG08      GEO      22 54 15.0  112 38 50.0
--
 BRG09      GEO      22 50 49.0  113 04 52.0
--
 BRG10      GEO      23 39 54.0  113 10 24.0
--
 BRG11      GEO      23 30 27.0  112 53 40.0
--
 BRG12      GEO      23 34 25.0  113 46 48.0
--
 BRG13      GEO      23 29 15.0  113 57  8.0
--
 BRG14      GEO      23 04 14.0  112 39  0.0
--
 C1         GEO      23 35  0.0  113 35 40.0
--
 C10        GEO      22 57 42.0  114 04 49.0
--
 C11        GEO      23 24 28.0  114 01 14.0
--
 C12        GEO      23 34 57.0  113 59 50.0
--
 C13        GEO      23 24 32.0  113 44 15.0
--
 C2         GEO      23 24 23.0  113 28 34.0
--
 C3         GEO      23 15 55.0  113 26 12.0
--
 C4         GEO      23 13 16.0  113 22  1.0
--
 C5         GEO      23 09 19.0  113 17  3.0
--
 C5_1       GEO      22 51 30.0  113 14 57.0
--
 C6         GEO      22 48 14.0  113 16  4.0
--
 C7         GEO      22 53 10.0  113 29  0.0
--
 C8         GEO      22 53 40.0  113 44 37.0
--
 C9         GEO      22 57 53.0  113 44 38.0
--
 CX100      GEO      23 49 15.0  114 16 58.0
--
 CX129      GEO      24 16 51.0  114 03 58.0
--
 CX180      GEO      22 33  0.0  113 11 41.0
--
 CX181      GEO      22 29 21.0  112 53 39.0
--
 CX183      GEO      22 27 36.0  112 44 53.0
--
 CX184      GEO      22 43 12.0  112 29 15.0
--
 CX185      GEO      22 29 38.0  112 55  4.0
--
 CX199      GEO      24 05  0.0  114 12 50.0
--
 CX34       GEO      24 09 11.0  112 51 19.0
--
 CX35       GEO      24 23 13.0  113 02 57.0
--
 CX36       GEO      24 20 56.0  113 25 13.0
--
 CX85       GEO      24 19  7.0  113 42 38.0
--
 DFAC2      GEO      23 01 17.0  113 08 12.0
--
 DFAC7      GEO      23 20 38.0  113 13 36.0
--
 DFAP2      GEO      23 01 15.0  113 04 54.0
--
 DFAP6      GEO      23 19 46.0  113 15 18.0
--
 DFAP7      GEO      23 19 16.0  113 12 19.0
--
 EAST1      GEO      23 24 26.0  113 18 44.0
--
 EAST2      GEO      23 24 24.0  113 18 55.0
--
 EAST3      GEO      23 22 31.0  113 18 24.0
--
 EAST4      GEO      23 22 33.0  113 18 14.0
--
 F01LD01    GEO      23 20 10.0  113 15 59.0
--
 F01LD02    GEO      23 20 15.0  113 15 38.0
--
 F01LD03    GEO      23 17 32.0  113 15 16.0
--
 F01LD04    GEO      23 17 37.0  113 14 56.0
--
 F01LD05    GEO      23 14 54.0  113 14 34.0
--
 F01LD06    GEO      23 14 59.0  113 14 13.0
--
 F01LD07    GEO      23 12 17.0  113 13 51.0
--
 F01LD08    GEO      23 12 21.0  113 13 31.0
--
 F01LD09    GEO      23 09 39.0  113 13  9.0
--
 F01LD10    GEO      23 09 44.0  113 12 48.0
--
 F01LD11    GEO      23 07  1.0  113 12 26.0
--
 F01LD12    GEO      23 07  6.0  113 12  6.0
--
 F01LD13    GEO      22 55 28.0  113 09 31.0
--
 F01LD14    GEO      22 55 37.0  113 08 50.0
--
 F19RD01    GEO      23 27 18.0  113 17 32.0
--
 F19RD02    GEO      23 27 13.0  113 17 53.0
--
 F19RD03    GEO      23 29 56.0  113 18 15.0
--
 F19RD04    GEO      23 29 51.0  113 18 35.0
--
 F19RD05    GEO      23 32 34.0  113 18 58.0
--
 F19RD06    GEO      23 32 29.0  113 19 18.0
--
 F19RD07    GEO      23 35 11.0  113 19 40.0
--
 F19RD08    GEO      23 35  6.0  113 20  1.0
--
 F19RD09    GEO      23 37 49.0  113 20 23.0
--
 F19RD10    GEO      23 37 44.0  113 20 44.0
--
 F19RD11    GEO      23 40 27.0  113 21  6.0
--
 F19RD12    GEO      23 40 22.0  113 21 26.0
--
 F19RD13    GEO      23 51  0.0  113 23 47.0
--
 F19RD14    GEO      23 50 50.0  113 24 28.0
--
 FAF01L     GEO      23 17  5.8  113 14 57.9
--
 FAF01R     GEO      23 16 53.0  113 15 28.0
--
 FAF02L     GEO      23 16 49.0  113 16 46.0
--
 FAF02R     GEO      23 16 25.0  113 16 55.0
--
 FAF19L     GEO      23 32 15.0  113 19 37.5
--
 FAF19R     GEO      23 32 17.0  113 19  6.0
--
 FAF20L     GEO      23 32  0.0  113 21  7.0
--
 FAF20R     GEO      23 32 14.0  113 20 55.0
--
 FSF02      GEO      23 29 23.0  113 09 42.0
--
 FSF03      GEO      23 05 21.0  113 03 57.0
--
 FSF04      GEO      22 52  6.0  113 00 45.0
--
 GP01       GEO      23 34 40.0  114 16  1.0
--
 GP02       GEO      23 30 26.0  114 12 24.0
--
 GP03       GEO      23 26  9.0  114 08 43.0
--
 GP04       GEO      23 21 55.0  114 05  5.0
--
 GP05       GEO      23 13 25.0  113 57 49.0
--
 GP06       GEO      23 09  8.0  113 54 11.0
--
 GP07       GEO      23 04 48.0  113 51 27.0
--
 GP08       GEO      22 59 56.0  113 53 58.0
--
 GP09       GEO      22 55  1.0  113 56 30.0
--
 GP10       GEO      23 36 37.0  114 14 20.0
--
 GP11       GEO      23 34 20.0  114 09  1.0
--
 GP12       GEO      23 32  1.0  114 03 42.0
--
 GP13       GEO      23 29 42.0  113 58 22.0
--
 GP14       GEO      23 27 24.0  113 53  2.0
--
 GP15       GEO      23 25  5.0  113 47 44.0
--
 GP16       GEO      23 22 46.0  113 42 26.0
--
 GP17       GEO      23 20 27.0  113 37  9.0
--
 GP18       GEO      23 18  9.0  113 31 50.0
--
 GP19       GEO      23 38  0.0  114 13 53.0
--
 GP20       GEO      23 37  5.0  114 08  3.0
--
 GP21       GEO      23 36 10.0  114 02 16.0
--
 GP22       GEO      23 35 15.0  113 56 28.0
--
 GP23       GEO      23 34 19.0  113 50 41.0
--
 GP24       GEO      23 33 24.0  113 44 53.0
--
 GP25       GEO      23 32 27.0  113 39  5.0
--
 GP26       GEO      23 31 55.0  113 33 16.0
--
 GP27       GEO      23 31 36.0  113 27 24.0
--
 GP28       GEO      23 06 28.0  113 13 25.0
--
 GP29       GEO      23 11 33.0  113 15 20.0
--
 GP30       GEO      23 16 41.0  113 17 16.0
--
 GP31       GEO      23 21 48.0  113 19 13.0
--
 GP32       GEO      23 26 55.0  113 21  8.0
--
 GP33       GEO      23 01 43.0  113 05 41.0
--
 GP34       GEO      23 02  9.0  112 59 49.0
--
 GP35       GEO      23 02 34.0  112 54  0.0
--
 GP36       GEO      23 02 59.0  112 48 10.0
--
 GP37       GEO      23 03 24.0  112 42 17.0
--
 GP38       GEO      23 03 48.0  112 36 28.0
--
 GP39       GEO      23 04 12.0  112 30 37.0
--
 GPT01      GEO      23 35 21.0  114 15  6.0
--
 GPT02      GEO      23 26 50.0  114 07 49.0
--
 GPT03      GEO      23 18  6.0  114 00 18.0
--
 GPT04      GEO      23 09 50.0  113 53 16.0
--
 GPT05      GEO      23 05  3.0  113 50  1.0
--
 GPT06      GEO      22 59 30.0  113 52 54.0
--
 GPT07      GEO      22 53 16.0  113 56  8.0
--
 GPT08      GEO      23 33 20.0  114 09 28.0
--
 GPT09      GEO      23 28 42.0  113 58 48.0
--
 GPT10      GEO      23 24  5.0  113 48 10.0
--
 GPT11      GEO      23 20 22.0  113 39 42.0
--
 GPT12      GEO      23 17 39.0  113 32  2.0
--
 GPT13      GEO      23 14 48.0  113 26 53.0
--
 GPT14      GEO      23 11 10.0  113 16 27.0
--
 GPT15      GEO      23 21 25.0  113 20 19.0
--
 GPT16      GEO      23 31 41.0  113 24 13.0
--
 GPT17      GEO      23 01  5.0  112 59 42.0
--
 GPT18      GEO      23 01 55.0  112 48  3.0
--
 GPT19      GEO      23 02 44.0  112 36 21.0
--
 GPT20      GEO      23 03 13.0  112 28 59.0
--
 GPT21      GEO      23 36  0.0  114 08 12.0
--
 GPT22      GEO      23 34 10.0  113 56 37.0
--
 GPT23      GEO      23 32 19.0  113 45  2.0
--
 GPT24      GEO      23 31  1.0  113 37  0.0
--
 GPT25      GEO      23 31  3.0  113 27 24.0
--
 GPT26      GEO      23 30 19.0  113 23 22.0
--
 GUANGNING  GEO      23 38 18.0  112 25 54.0
--
 GYA01      GEO      23 04 22.0  112 39 19.0
--
 GYA02      GEO      23 30 50.0  112 53 17.0
--
 GYA03      GEO      23 40  3.0  113 14 34.0
--
 GYA1       GEO      23 04 17.0  112 29  7.0
--
 HESHUI     GEO      22 48  0.0  112 29 18.0
--
 HOLD1      GEO      23 04 11.0  112 43 31.0
--
 HOLD10     GEO      23 16 25.0  113 44 45.0
--
 HOLD11     GEO      23 13  9.0  113 44 37.0
--
 HOLD12     GEO      23 14 46.0  113 44 42.0
--
 HOLD13     GEO      23 57 57.0  113 58 17.0
--
 HOLD14     GEO      24 00 56.0  113 56 51.0
--
 HOLD15     GEO      23 59 27.0  113 57 36.0
--
 HOLD16     GEO      24 02 25.0  114 00  0.0
--
 HOLD17     GEO      23 59 31.0  114 01 23.0
--
 HOLD18     GEO      24 00 57.0  114 00 44.0
--
 HOLD19     GEO      23 04 20.0  113 19 42.0
--
 HOLD2      GEO      23 00 41.0  112 43 31.0
--
 HOLD20     GEO      23 03 34.0  113 23  7.0
--
 HOLD21     GEO      23 03 58.0  113 21 25.0
--
 HOLD22     GEO      23 00 49.0  113 18 45.0
--
 HOLD23     GEO      23 00  3.0  113 22 11.0
--
 HOLD24     GEO      23 00 26.0  113 20 27.0
--
 HOLD25     GEO      24 09  1.0  113 38 59.0
--
 HOLD26     GEO      24 10 37.0  113 35 55.0
--
 HOLD27     GEO      24 09 48.0  113 37 27.0
--
 HOLD28     GEO      24 11 59.0  113 41 11.0
--
 HOLD29     GEO      24 13 19.0  113 37 57.0
--
 HOLD3      GEO      23 02 26.0  112 43 31.0
--
 HOLD30     GEO      24 12 41.0  113 39 35.0
--
 HOLD31     GEO      24 08 58.0  113 44 29.0
--
 HOLD32     GEO      24 09 30.0  113 41  0.0
--
 HOLD33     GEO      24 09 14.0  113 42 44.0
--
 HOLD34     GEO      24 12 44.0  113 41 32.0
--
 HOLD35     GEO      24 12 14.0  113 45  3.0
--
 HOLD36     GEO      24 12 28.0  113 43 18.0
--
 HOLD37     GEO      24 09 34.0  113 06 39.0
--
 HOLD38     GEO      24 09  0.0  113 03 10.0
--
 HOLD39     GEO      24 09 18.0  113 04 55.0
--
 HOLD4      GEO      23 00 47.0  112 38 35.0
--
 HOLD40     GEO      24 12 11.0  113 02 17.0
--
 HOLD41     GEO      24 12 42.0  113 05 48.0
--
 HOLD42     GEO      24 12 28.0  113 04  5.0
--
 HOLD43     GEO      24 07 24.0  113 05 58.0
--
 HOLD44     GEO      24 06 57.0  113 02 30.0
--
 HOLD45     GEO      24 07 13.0  113 04 16.0
--
 HOLD46     GEO      24 10 23.0  113 01 48.0
--
 HOLD47     GEO      24 10 38.0  113 05 22.0
--
 HOLD48     GEO      24 10 32.0  113 03 37.0
--
 HOLD49     GEO      23 16  0.0  113 54  3.0
--
 HOLD5      GEO      23 04  6.0  112 38 36.0
--
 HOLD50     GEO      23 16 19.0  113 57 33.0
--
 HOLD51     GEO      23 16  9.0  113 55 50.0
--
 HOLD52     GEO      23 13  2.0  113 58  0.0
--
 HOLD53     GEO      23 12 45.0  113 54 29.0
--
 HOLD54     GEO      23 12 54.0  113 56 12.0
--
 HOLD55     GEO      23 33 29.0  113 46  2.0
--
 HOLD56     GEO      23 35 38.0  113 43 22.0
--
 HOLD57     GEO      23 34 34.0  113 44 43.0
--
 HOLD58     GEO      23 35 56.0  113 48 21.0
--
 HOLD59     GEO      23 38  6.0  113 45 42.0
--
 HOLD6      GEO      23 02 26.0  112 38 35.0
--
 HOLD60     GEO      23 37  0.0  113 47  3.0
--
 HOLD61     GEO      23 51 22.0  114 01 36.0
--
 HOLD62     GEO      23 53 31.0  113 58 57.0
--
 HOLD63     GEO      23 52 26.0  114 00 20.0
--
 HOLD64     GEO      23 56 10.0  114 01  4.0
--
 HOLD65     GEO      23 53 58.0  114 03 46.0
--
 HOLD66     GEO      23 55  3.0  114 02 25.0
--
 HOLD67     GEO      23 35 53.0  113 28 13.0
--
 HOLD68     GEO      23 35  7.0  113 31 40.0
--
 HOLD69     GEO      23 35 30.0  113 29 57.0
--
 HOLD7      GEO      23 13 17.0  113 41  6.0
--
 HOLD70     GEO      23 31 57.0  113 30 48.0
--
 HOLD71     GEO      23 32 44.0  113 27 22.0
--
 HOLD72     GEO      23 32 21.0  113 29  4.0
--
 HOLD73     GEO      24 02 38.0  113 53 16.0
--
 HOLD74     GEO      24 05 54.0  113 52 59.0
--
 HOLD75     GEO      24 04 16.0  113 53  9.0
--
 HOLD76     GEO      24 03  4.0  113 56 48.0
--
 HOLD77     GEO      24 06 20.0  113 56 30.0
--
 HOLD78     GEO      24 04 43.0  113 56 39.0
--
 HOLD79     GEO      23 44 13.0  113 04 42.0
--
 HOLD8      GEO      23 16 32.0  113 41 14.0
--
 HOLD80     GEO      23 45 31.0  113 07 52.0
--
 HOLD81     GEO      23 44 55.0  113 06 16.0
--
 HOLD82     GEO      23 41 11.0  113 06 16.0
--
 HOLD83     GEO      23 42 33.0  113 09 32.0
--
 HOLD84     GEO      23 41 53.0  113 07 53.0
--
 HOLD9      GEO      23 14 55.0  113 41 11.0
--
 HUALONG    GEO      23 01  8.0  113 26 45.0
--
 HZ_SID01   GEO      23 03  2.0  114 39 40.0
--
 HZ_SID02   GEO      22 57 48.0  114 38 33.0
--
 HZ_SID03   GEO      23 00 26.0  114 39  6.0
--
 HZ_SID04   GEO      23 07 36.0  114 41  2.0
--
 HZ_SID05   GEO      23 05 19.0  114 40 19.0
--
 HZ_SID07   GEO      23 03 41.0  114 28 59.0
--
 HZ_SID08   GEO      23 02 45.0  114 30 58.0
--
 HZ_SID09   GEO      23 03  2.0  114 29 53.0
--
 HZ_SID10   GEO      23 04 18.0  114 30 52.0
--
 IF01L      GEO      23 09 14.0  113 12 49.0
--
 IF01R      GEO      23 09  1.0  113 13 17.0
--
 IF02L      GEO      23 11 52.0  113 15 24.0
--
 IF02R      GEO      23 11 27.0  113 15 36.0
--
 IF19L      GEO      23 38  9.0  113 21 13.0
--
 IF19R      GEO      23 38 17.0  113 20 40.0
--
 IF20L      GEO      23 37 47.0  113 22 39.0
--
 IF20R      GEO      23 38  3.0  113 22 32.0
--
 IPP123     GEO      23 36 15.0  113 20 40.0
--
 JICHANG1   GEO      22 55  8.0  113 26 23.0
--
 JICHANG2   GEO      22 40 25.0  113 28 10.0
--
 JJA1       GEO      23 07 32.0  113 09 57.0
--
 JJA2       GEO      23 06 56.0  113 12 16.0
--
 JJA3       GEO      23 06 34.0  113 14 14.0
--
 JJA4       GEO      23 06  6.0  113 16 26.0
--
 JJB1       GEO      23 04 28.0  113 09  4.0
--
 JJB2       GEO      23 03 56.0  113 11 27.0
--
 JJB3       GEO      23 03 30.0  113 13 24.0
--
 JJB4       GEO      23 03  1.0  113 15 38.0
--
 JJC1       GEO      23 01 21.0  113 08 15.0
--
 JJC2       GEO      23 00 50.0  113 10 36.0
--
 JJC3       GEO      23 00 24.0  113 12 34.0
--
 JJC4       GEO      22 59 56.0  113 14 50.0
--
 JJD1       GEO      22 49 34.0  113 05  9.0
--
 JJD2       GEO      22 49  3.0  113 07 28.0
--
 JJD3       GEO      22 48 38.0  113 09 20.0
--
 JJD4       GEO      22 48  4.0  113 11 48.0
--
 JJE1       GEO      23 54 41.0  113 22 42.0
--
 JJE2       GEO      23 54  8.0  113 25  3.0
--
 JJE3       GEO      23 53 39.0  113 27  4.0
--
 JJE4       GEO      23 53  5.0  113 29 28.0
--
 JJF1       GEO      23 47 12.0  113 20 42.0
--
 JJF2       GEO      23 46 39.0  113 23  1.0
--
 JJF3       GEO      23 46 11.0  113 25  0.0
--
 JJF4       GEO      23 45 40.0  113 27 21.0
--
 JJG1       GEO      23 44  2.0  113 19 52.0
--
 JJG2       GEO      23 43 31.0  113 22 10.0
--
 JJG3       GEO      23 43  4.0  113 24  8.0
--
 JJG4       GEO      23 42 31.0  113 26 29.0
--
 JJH1       GEO      23 40 54.0  113 19  2.0
--
 JJH2       GEO      23 40 22.0  113 21 19.0
--
 JJH3       GEO      23 39 55.0  113 23 17.0
--
 JJH4       GEO      23 39 23.0  113 25 35.0
--
 KF74       GEO      23 04 14.0  112 34 58.0
--
 LA1        GEO      23 50 40.0  113 24 38.0
--
 LA10       GEO      23 34 55.0  113 20 33.0
--
 LA11       GEO      23 35  1.0  113 20 10.0
--
 LA12       GEO      23 32 19.0  113 19 50.0
--
 LA13       GEO      23 32 24.0  113 19 28.0
--
 LA14       GEO      23 29 42.0  113 19  7.0
--
 LA15       GEO      23 29 47.0  113 18 45.0
--
 LA16       GEO      23 27  4.0  113 18 24.0
--
 LA17       GEO      23 27  9.0  113 18  3.0
--
 LA18       GEO      23 24 30.0  113 17 31.0
--
 LA2        GEO      23 50 35.0  113 24 59.0
--
 LA3        GEO      23 50 45.0  113 24 17.0
--
 LA4A       GEO      23 38 36.0  113 20 55.0
--
 LA4B       GEO      23 38 25.0  113 21 43.0
--
 LA6        GEO      23 40  9.0  113 21 59.0
--
 LA7        GEO      23 40 15.0  113 21 35.0
--
 LA8        GEO      23 37 33.0  113 21 16.0
--
 LA9        GEO      23 37 38.0  113 20 53.0
--
 LB10       GEO      23 12  6.0  113 14 22.0
--
 LB11       GEO      23 12 11.0  113 13 59.0
--
 LB12       GEO      23 14 43.0  113 15  4.0
--
 LB13       GEO      23 14 48.0  113 14 42.0
--
 LB14       GEO      23 17 20.0  113 15 46.0
--
 LB15       GEO      23 17 25.0  113 15 25.0
--
 LB16       GEO      23 19 58.0  113 16 29.0
--
 LB17       GEO      23 20  3.0  113 16  8.0
--
 LB2        GEO      22 55 13.0  113 09 59.0
--
 LB3        GEO      22 55 23.0  113 09 17.0
--
 LB6        GEO      23 06 52.0  113 12 57.0
--
 LB7        GEO      23 06 57.0  113 12 34.0
--
 LB8        GEO      23 09 29.0  113 13 40.0
--
 LB9        GEO      23 09 34.0  113 13 16.0
--
 LT01L_1    GEO      23 15  5.0  113 14  0.0
--
 LT01L_2    GEO      23 14 55.0  113 14 48.0
--
 LT01R_1    GEO      23 14 52.0  113 14 30.0
--
 LT01R_2    GEO      23 14 41.0  113 15 19.0
--
 LT02L_1    GEO      23 14 47.0  113 15 48.0
--
 LT02L_2    GEO      23 14 37.0  113 16 37.0
--
 LT02R_1    GEO      23 14 25.0  113 15 57.0
--
 LT02R_2    GEO      23 14 14.0  113 16 45.0
--
 LT19L_1    GEO      23 34 16.0  113 20 35.0
--
 LT19L_2    GEO      23 34 27.0  113 19 47.0
--
 LT19R_1    GEO      23 34 28.0  113 19 14.0
--
 LT19R_2    GEO      23 34 18.0  113 20  3.0
--
 M1         GEO      25 03 32.0  114 05 55.0
--
 M10        GEO      24 07 38.0  114 22  0.0
--
 M11        GEO      23 19 48.0  114 21 32.0
--
 M12        GEO      24 07 44.0  112 29 19.0
--
 M13        GEO      22 55 56.0  112 15 49.0
--
 M14        GEO      23 59 38.0  114 12 36.0
--
 M2         GEO      24 17  0.0  114 03 21.0
--
 M3         GEO      23 59 39.0  115 21 10.0
--
 M4         GEO      23 59  5.0  112 42 45.0
--
 M5         GEO      23 58 37.0  111 36  3.0
--
 M6         GEO      24 43 38.0  112 07 43.0
--
 M7         GEO      22 12 38.0  112 08 37.0
--
 M8         GEO      22 54 12.0  114 02 59.0
--
 M9         GEO      22 13  8.0  114 03 21.0
--
 MFS01      GEO      23 52 20.0  112 20 15.0
--
 MFS02      GEO      23 52 20.0  112 50 30.0
--
 MFS03      GEO      23 43 10.0  112 53 30.0
--
 MFS04      GEO      23 40 23.0  112 58 50.0
--
 MFS05      GEO      23 21 20.0  112 58 50.0
--
 MFS06      GEO      23 21 20.0  112 33 30.0
--
 MFS07      GEO      23 52 20.0  112 14 10.0
--
 MFS08      GEO      23 21 20.0  112 27 14.0
--
 MFS09      GEO      23 21 20.0  112 03 35.0
--
 MFS10      GEO      23 22 41.0  111 57 28.0
--
 MFS11      GEO      23 52 20.0  111 41 30.0
--
 MFS12      GEO      24 24 30.0  112 40  0.0
--
 MFS13      GEO      23 57 30.0  112 48 50.0
--
 MFS14      GEO      23 57 30.0  112 18  0.0
--
 MFS15      GEO      24 27 50.0  112 05  5.0
--
 MFS16      GEO      24 28 22.0  111 58 31.0
--
 MFS17      GEO      23 57 30.0  112 12  0.0
--
 MFS18      GEO      23 57 30.0  111 38 20.0
--
 MFS19      GEO      24 31 52.0  111 20 40.0
--
 MFS20      GEO      25 18 11.0  111 53 32.0
--
 MFS21      GEO      25 35  0.0  112 54 27.0
--
 MFS22      GEO      24 36 57.0  112 53  5.0
--
 MFS23      GEO      24 42 38.0  111 53 30.0
--
 MFS24      GEO      25 09 45.0  111 25 45.0
--
 MFS25      GEO      25 16 14.0  111 47 32.0
--
 MFS26      GEO      24 43 20.0  111 47 27.0
--
 MFS27      GEO      24 45  0.0  111 24 30.0
--
 MFS28      GEO      22 48  0.0  113 09  0.0
--
 MFS29      GEO      22 21 40.0  113 17  0.0
--
 MFS30      GEO      22 15 15.0  113 09 10.0
--
 MFS31      GEO      22 03  0.0  112 41  0.0
--
 MFS32      GEO      22 48  0.0  112 53  0.0
--
 MFS33      GEO      22 48  0.0  112 20  0.0
--
 MFS34      GEO      22 48  0.0  112 47  0.0
--
 MFS35      GEO      21 59 44.0  112 32 44.0
--
 MFS36      GEO      21 44  0.0  111 54 30.0
--
 MFS37      GEO      22 19 30.0  111 48  0.0
--
 MFS38      GEO      21 28  5.0  111 49 51.0
--
 MFS39      GEO      21 40 35.0  112 40 56.0
--
 MFS40      GEO      21 07 55.0  112 40 54.0
--
 MFS41      GEO      20 55 25.0  111 49 54.0
--
 MFS42      GEO      21 23 24.0  112 50 30.0
--
 MFS43      GEO      21 43 37.0  112 42 54.0
--
 MFS44      GEO      21 55 55.0  113 20 36.0
--
 MFS45      GEO      21 35 42.0  113 28  7.0
--
 MFS46      GEO      21 08 44.0  112 06 28.0
--
 MFS47      GEO      21 28 52.0  111 58 42.0
--
 MFS48      GEO      21 41 28.0  112 36 26.0
--
 MFS49      GEO      21 21 16.0  112 44  0.0
--
 MISS01LP1  GEO      23 25 35.0  113 17 16.0
--
 MISS01RP1  GEO      23 25 31.0  113 17 47.0
--
 MISS19RP1  GEO      23 21  8.0  113 15 50.0
--
 MISS19RP2  GEO      23 22 35.0  113 11 12.0
--
 MISS19RP3  GEO      23 22 34.0  113 13 46.0
--
 MVA13H     GEO      24 12 29.0  113 24 42.0
--
 N6KMC      GEO      23 40 18.0  113 23 20.0
--
 NB01       GEO      23 09 19.0  113 17  3.0
--
 NB02       GEO      23 09 19.0  113 18 36.0
--
 NB03       GEO      23 06 26.0  113 18 36.0
--
 NB04       GEO      23 06 26.0  113 17  3.0
--
 OBS1       GEO      23 33 14.0  113 20 47.0
--
 OBS10      GEO      23 29 57.0  113 22 41.0
--
 OBS11      GEO      23 28 49.0  113 25 47.0
--
 OBS12      GEO      23 19 28.0  113 24  9.0
--
 OBS13      GEO      23 08 38.0  113 15 47.0
--
 OBS14      GEO      23 08 34.0  113 18 55.0
--
 OBS15      GEO      23 17 39.0  113 27 31.0
--
 OBS16      GEO      23 17 32.0  113 24 50.0
--
 OBS17      GEO      22 43 22.0  112 46 29.0
--
 OBS18      GEO      22 55 37.0  112 58 20.0
--
 OBS19      GEO      23 08 18.0  112 44 29.0
--
 OBS2       GEO      23 30 57.0  113 19 47.0
--
 OBS20      GEO      23 32 47.0  112 49 32.0
--
 OBS21      GEO      23 42 56.0  113 09 32.0
--
 OBS22      GEO      23 48 50.0  113 33 49.0
--
 OBS23      GEO      23 23 18.0  113 35 16.0
--
 OBS24      GEO      23 06 26.0  112 37  1.0
--
 OBS25      GEO      23 11  0.0  112 30 42.0
--
 OBS26      GEO      23 37 37.0  112 39  9.0
--
 OBS27      GEO      23 51 37.0  113 05 57.0
--
 OBS28      GEO      23 55 23.0  113 22  8.0
--
 OBS29      GEO      23 52 57.0  113 20 52.0
--
 OBS3       GEO      23 10 22.0  113 16 36.0
--
 OBS30      GEO      23 57 50.0  113 31 20.0
--
 OBS31      GEO      23 42 31.0  113 46 22.0
--
 OBS32      GEO      23 44 56.0  113 50 33.0
--
 OBS33      GEO      23 39 51.0  113 43 38.0
--
 OBS34      GEO      23 36 12.0  113 44 35.0
--
 OBS35      GEO      23 39 15.0  113 48 49.0
--
 OBS36      GEO      23 34 15.0  113 50 57.0
--
 OBS37      GEO      23 17  2.0  114 00 56.0
--
 OBS38      GEO      23 29 10.0  113 22 47.0
--
 OBS39      GEO      23 28 49.0  113 25 43.0
--
 OBS4       GEO      23 16 21.0  113 04 20.0
--
 OBS40      GEO      23 31 23.0  113 18 40.0
--
 OBS41      GEO      23 31 47.0  113 21 14.0
--
 OBS42      GEO      23 31 15.0  113 20 16.0
--
 OBS43      GEO      23 31  9.0  113 20 31.0
--
 OBS44      GEO      23 00 15.0  113 21 20.0
--
 OBS5       GEO      23 24  2.0  113 06 45.0
--
 OBS6       GEO      23 25 40.0  113 08 43.0
--
 OBS7       GEO      23 33 43.0  113 11 51.0
--
 OBS8       GEO      23 30 18.0  113 23 13.0
--
 OBS9       GEO      23 39 48.0  113 31 19.0
--
 PF1        GEO      23 22  0.0  113 53  0.0
--
 PF2        GEO      24 30  0.0  114 42  0.0
--
 PFS10      GEO      23 36 48.0  113 34 16.0
--
 PFS13      GEO      23 19 56.0  113 17 52.0
--
 PFS14      GEO      23 18  9.0  113 22 27.0
--
 PFS15      GEO      23 19 22.0  113 20 18.0
--
 PFS16      GEO      23 36  9.0  113 36 51.0
--
 PFS17      GEO      23 36 54.0  113 38 28.0
--
 PFS18      GEO      23 33 29.0  113 40 22.0
--
 PFS19      GEO      23 31 58.0  113 37  9.0
--
 PFS20      GEO      23 32 43.0  113 38 45.0
--
 PFS21      GEO      23 22  4.0  113 14 20.0
--
 PFS22      GEO      23 52 13.0  113 18 16.0
--
 PFS23      GEO      23 51 23.0  113 21  5.0
--
 PFS24      GEO      23 53 40.0  113 22  5.0
--
 PFS25      GEO      23 54 18.0  113 32 33.0
--
 PFS26      GEO      23 53  0.0  113 33 45.0
--
 PFS27      GEO      23 51 41.0  113 34 57.0
--
 PFS28      GEO      23 49 11.0  113 31 41.0
--
 PFS3       GEO      23 33 42.0  113 32 15.0
--
 PFS31      GEO      23 49  9.0  113 41 16.0
--
 PFS32      GEO      23 53  1.0  113 41 57.0
--
 PFS33      GEO      23 53 34.0  113 38 17.0
--
 PFS34      GEO      23 53 17.0  113 40  7.0
--
 PFS35      GEO      23 21 34.0  113 11 53.0
--
 PFS36      GEO      23 44 13.0  113 04 42.0
--
 PFS37      GEO      23 44 34.0  113 06 25.0
--
 PFS38      GEO      23 44 56.0  113 08  4.0
--
 PFS39      GEO      23 41  5.0  113 05 45.0
--
 PFS4       GEO      23 25  6.0  113 19  0.0
--
 PFS40      GEO      23 41 33.0  113 07 32.0
--
 PFS41      GEO      23 41 59.0  113 09  6.0
--
 PFS5       GEO      23 26 11.0  113 19 33.0
--
 PFS6       GEO      23 35 27.0  113 35 14.0
--
 PFS7       GEO      23 36 29.0  113 30 30.0
--
 PFS8       GEO      23 38 11.0  113 33 19.0
--
 PFS9       GEO      23 35  6.0  113 31 20.0
--
 PFSIOO     GEO      23 25  6.0  113 17 41.0
--
 POUAC1     GEO      23 01 17.0  113 08 13.0
--
 POUAP2     GEO      23 01 16.0  113 04 55.0
--
 PUCHANG    GEO      24 07  6.0  113 56 18.0
--
 RA1        GEO      23 50 34.0  113 25 58.0
--
 RA10       GEO      23 34 50.0  113 21 52.0
--
 RA11       GEO      23 34 55.0  113 21 18.0
--
 RA12       GEO      23 32 13.0  113 21  9.0
--
 RA13       GEO      23 32 19.0  113 20 47.0
--
 RA14       GEO      23 29 37.0  113 20 26.0
--
 RA15       GEO      23 29 42.0  113 20  4.0
--
 RA16       GEO      23 26 59.0  113 19 43.0
--
 RA17       GEO      23 27  4.0  113 19 22.0
--
 RA18       GEO      23 24 25.0  113 18 50.0
--
 RA2        GEO      23 50 30.0  113 26 18.0
--
 RA3        GEO      23 50 39.0  113 25 36.0
--
 RA4A       GEO      23 34 26.0  113 21  8.0
--
 RA4B       GEO      23 34 16.0  113 21 56.0
--
 RA6        GEO      23 40  4.0  113 23 18.0
--
 RA7        GEO      23 40 10.0  113 22 54.0
--
 RA8        GEO      23 37 27.0  113 22 35.0
--
 RA9        GEO      23 37 33.0  113 22 12.0
--
 RB1        GEO      22 56 22.0  113 11 14.0
--
 RB10       GEO      23 12  1.0  113 15 40.0
--
 RB11       GEO      23 12  6.0  113 15 17.0
--
 RB12       GEO      23 14 38.0  113 16 22.0
--
 RB13       GEO      23 14 43.0  113 16  0.0
--
 RB14       GEO      23 17 15.0  113 17  3.0
--
 RB15       GEO      23 17 20.0  113 16 43.0
--
 RB16       GEO      23 19 53.0  113 17 47.0
--
 RB17       GEO      23 19 58.0  113 17 26.0
--
 RB18       GEO      23 22 32.0  113 18 19.0
--
 RB2        GEO      22 55 10.0  113 11 19.0
--
 RB3        GEO      22 55 19.0  113 10 38.0
--
 RB4A       GEO      23 11 42.0  113 14 57.0
--
 RB4B       GEO      23 11 32.0  113 15 45.0
--
 RB6        GEO      23 06 47.0  113 14 15.0
--
 RB7        GEO      23 06 52.0  113 13 52.0
--
 RB8        GEO      23 09 24.0  113 14 57.0
--
 RB9        GEO      23 09 29.0  113 14 34.0
--
 RRA1       GEO      23 50 19.0  113 26  8.0
--
 RRA10      GEO      23 34 35.0  113 22  2.0
--
 RRA11      GEO      23 34 40.0  113 21 39.0
--
 RRA12      GEO      23 31 58.0  113 21 19.0
--
 RRA13      GEO      23 32  4.0  113 20 57.0
--
 RRA14      GEO      23 29 22.0  113 20 36.0
--
 RRA15      GEO      23 29 27.0  113 20 14.0
--
 RRA16      GEO      23 26 44.0  113 19 53.0
--
 RRA17      GEO      23 26 49.0  113 19 32.0
--
 RRA18      GEO      23 24 10.0  113 19  0.0
--
 RRA2       GEO      23 50 15.0  113 26 28.0
--
 RRA3       GEO      23 50 24.0  113 25 46.0
--
 RRA4A      GEO      23 34 11.0  113 21 18.0
--
 RRA4B      GEO      23 34  1.0  113 22  6.0
--
 RRA6       GEO      23 39 49.0  113 23 28.0
--
 RRA7       GEO      23 39 55.0  113 23  4.0
--
 RRA8       GEO      23 37 12.0  113 22 45.0
--
 RRA9       GEO      23 37 18.0  113 22 22.0
--
 RRB1       GEO      22 56  0.0  113 11 23.0
--
 RRB10      GEO      23 11 39.0  113 15 49.0
--
 RRB11      GEO      23 11 42.0  113 15 27.0
--
 RRB12      GEO      23 14 16.0  113 16 31.0
--
 RRB13      GEO      23 14 21.0  113 16  9.0
--
 RRB14      GEO      23 16 53.0  113 17 12.0
--
 RRB15      GEO      23 16 58.0  113 16 52.0
--
 RRB16      GEO      23 19 31.0  113 17 56.0
--
 RRB17      GEO      23 19 36.0  113 17 35.0
--
 RRB18      GEO      23 22 10.0  113 18 28.0
--
 RRB2       GEO      22 54 52.0  113 11 30.0
--
 RRB3       GEO      22 55  2.0  113 10 47.0
--
 RRB4A      GEO      23 11 20.0  113 15  6.0
--
 RRB4B      GEO      23 11 10.0  113 15 54.0
--
 RRB6       GEO      23 06 25.0  113 14 24.0
--
 RRB7       GEO      23 06 30.0  113 14  1.0
--
 RRB8       GEO      23 09  2.0  113 15  6.0
--
 RRB9       GEO      23 09  7.0  113 14 43.0
--
 RUN1       GEO      23 22 11.0  113 18 22.0
--
 RUN2       GEO      23 22  9.0  113 18 32.0
--
 RUN3       GEO      23 24  9.0  113 19  5.0
--
 RUN4       GEO      23 24 11.0  113 18 54.0
--
 RW09       GEO      23 02 53.3  114 35 19.0
--
 RW19AP2    GEO      23 20 17.0  113 10 59.0
--
 RW19LAC    GEO      23 22 40.0  113 13 11.0
--
 RW19LAP1   GEO      23 21  9.0  113 16  8.0
--
 RW19RAC    GEO      23 22 26.0  113 12 58.0
--
 RW19RAP1   GEO      23 21 15.0  113 15 43.0
--
 RW27       GEO      23 02 56.5  114 36 43.2
--
 S1         GEO      22 52 30.0  112 52  0.0
--
 S10        GEO      22 56 47.0  113 01 20.0
--
 S11        GEO      23 45 20.0  114 14 22.0
--
 S12        GEO      24 09 21.0  113 43  7.0
--
 S13        GEO      23 28 56.0  113 42 53.0
--
 S14        GEO      23 39 38.0  113 30 28.0
--
 S15        GEO      24 03 36.0  113 10 48.0
--
 S16        GEO      23 45 55.0  114 00 12.0
--
 S17        GEO      23 24 43.0  113 21 14.0
--
 S18        GEO      23 30 54.0  112 28 43.0
--
 S19        GEO      22 59  8.0  112 57 19.0
--
 S2         GEO      23 27  4.0  113 03 10.0
--
 S20        GEO      22 31 58.0  112 55 23.0
--
 S21        GEO      22 55 59.0  113 57 31.0
--
 S3         GEO      23 26  9.0  113 07 46.0
--
 S4         GEO      23 20 15.0  113 32 59.0
--
 S5         GEO      23 41  3.0  113 56 28.0
--
 S8         GEO      23 08 30.0  113 31 16.0
--
 S9         GEO      22 57 42.0  113 12 42.0
--
 SF01       GEO      23 11 10.0  113 01 10.0
--
 SF02       GEO      23 14  6.0  112 44 28.0
--
 SF03       GEO      23 29 24.0  112 48 59.0
--
 SF04       GEO      23 26 43.0  113 00 25.0
--
 SF05       GEO      23 25 45.0  113 02 11.0
--
 SF06       GEO      23 24 35.0  113 03 13.0
--
 SF07       GEO      23 22 37.0  113 03 56.0
--
 SHL01      GEO      23 05 38.0  113 51  3.0
--
 SHL02      GEO      23 29 12.0  113 57 10.0
--
 SHL03      GEO      23 33 31.0  113 46  8.0
--
 SIF19      GEO      23 50 40.0  113 24 36.0
--
 SIF20L     GEO      23 50 20.0  113 26  6.0
--
 SIF20R     GEO      23 50 35.0  113 25 57.0
--
 SMA        GEO      22 53 36.0  113 51 23.0
--
 SMB        GEO      23 04  3.0  113 37 19.0
--
 SMC        GEO      23 21 58.0  113 34 56.0
--
 SMD        GEO      23 20 15.0  113 32 59.0
--
 SME        GEO      23 22  1.0  113 25 18.0
--
 SMF        GEO      23 07 49.0  113 21 26.0
--
 SMG        GEO      22 53 30.0  113 41 17.0
--
 SMH        GEO      23 05  2.0  113 25 18.0
--
 SS01       GEO      23 47 57.0  113 03  4.0
--
 SS02       GEO      23 51 30.0  112 34 17.0
--
 SS03       GEO      23 38 24.0  112 25 58.0
--
 SS04       GEO      23 07 14.0  112 28 49.0
--
 SS05       GEO      23 06 52.0  113 02 58.0
--
 SS06       GEO      23 41 52.0  113 07 28.0
--
 SS07       GEO      23 43  7.0  113 02 22.0
--
 TMA5       GEO      23 05 30.0  113 04  0.0
--
 TXT04      GEO      24 15  3.0  113 05 56.0
--
 TXT05      GEO      24 12 59.0  113 54 25.0
--
 TXT1       GEO      23 17 26.0  113 10 29.0
--
 TXT10      GEO      23 42 45.0  114 03 38.0
--
 TXT11      GEO      23 20 59.0  113 56 16.0
--
 TXT12      GEO      23 40 17.0  113 49 24.0
--
 TXT2       GEO      23 13 19.0  113 17 11.0
--
 TXT3       GEO      23 43  6.0  113 24 39.0
--
 TXT41      GEO      23 15 55.0  112 59 55.0
--
 TXT42      GEO      22 48 48.0  113 08  8.0
--
 TXT43      GEO      23 16 54.0  113 32 23.0
--
 TXT51      GEO      23 40 34.0  113 05 16.0
--
 TXT52      GEO      23 24  5.0  112 37 35.0
--
 TXT53      GEO      22 39 13.0  112 52 10.0
--
 TXT54      GEO      23 49  1.0  113 41 52.0
--
 TXT55      GEO      23 59 46.0  113 16 15.0
--
 TXT61      GEO      23 47 55.0  113 30 20.0
--
 TXT62      GEO      23 20  1.0  113 44 55.0
--
 TXT63      GEO      23 02 54.0  113 58 10.0
--
 TXT64      GEO      23 06 44.0  113 19  2.0
--
 TXT65      GEO      23 01  6.0  113 18 16.0
--
 TXT7       GEO      23 07 46.0  112 34 40.0
--
 TXT8       GEO      23 46 20.0  112 49  9.0
--
 TXT9       GEO      23 59  1.0  113 31 25.0
--
 W2P1       GEO      23 22 49.0  113 16 36.0
--
 W2P2       GEO      23 22 51.0  113 16 26.0
--
 W2P3       GEO      23 24 39.0  113 16 55.0
--
 W2P4       GEO      23 24 37.0  113 17  5.0
--
 WEST1      GEO      23 24 31.0  113 17 26.0
--
 WEST2      GEO      23 24 29.0  113 17 36.0
--
 WEST3      GEO      23 22 36.0  113 17  6.0
--
 WEST4      GEO      23 22 38.0  113 16 56.0
--
 XINXI      GEO      22 52  7.0  115 34 40.0
--
 ZGLZ       GEO      22 20  9.0  113 11 20.0
--
 ZHANGMUTOU GEO      22 54  0.0  114 03 42.0
--
--*
--*        end of file
--*
--*
